LAMMPS (10 Feb 2021)
# Input written to comply with LAMMPS 2017-08-11 00:00:00

# Atomic Configuration
units           metal
boundary        p p p
box tilt large
atom_style      charge
read_data       na3ocl.lmp
Reading data file ...
  orthogonal box = (0.0000000 0.0000000 0.0000000) to (13.503000 13.503000 13.503000)
  reading atoms ...
  129 atoms

# Potential Setup
pair_style  buck/coul/long 12.0
pair_coeff * * 0.0 1.0 0.0
pair_coeff 1 1    1788.190000  0.159000   0.000000 # Na Na
pair_coeff 1 3    1170.410000  0.315000   0.000000 # Na Cl
pair_coeff 1 2     588.380000  0.338000   0.000000 # Na O
pair_coeff 3 3    1227.200000  0.321000  14.530000 # Cl Cl
pair_coeff 2 3    8286.910000  0.259000  62.200000 # Cl O
pair_coeff 2 2   22764.300000  0.149000  13.190000 # O  O
kspace_style pppm 1e-05

# General Setup
timestep        0.001

# Thermodynamic Information Output
thermo_style custom step temp epair emol etotal press lx ly lz fmax cpu cpuremain
thermo          1000

# Intial Atom Velocity
velocity all create 800 80800 dist gaussian rot yes

# Stage 0: npt_equilibriation
restart         0
fix             int all npt aniso 1.0 1.0 0.1 temp 800 800 0.5
run             50000
PPPM initialization ...
  G vector (1/distance) = 0.27805162
  grid = 15 15 15
  stencil order = 5
  estimated absolute RMS force accuracy = 6.1260485e-05
  estimated relative force accuracy = 4.2543052e-06
  3d grid and FFT values/proc = 10648 3375
  update every 1 steps, delay 10 steps, check yes
Step Temp E_pair E_mol TotEng Press Lx Ly Lz Fmax CPU CPULeft
0          800   -890.25354            0   -877.01731   -18943.152       13.503       13.503       13.503    5.4570963            0            0
Averages over the last 26 of 51 rows, steps 25000 to 50000:
Temp E_pair E_mol TotEng Press Lx Ly Lz Fmax
806.864 -893.629 0 -880.28 1040.25 13.3855 13.4388 13.4504 2.38855
Loop time of 124.831 on 1 procs for 50000 steps with 129 atoms

# Stage 1: nvt_equilibriation
unfix int
restart         0
fix             int all nvt temp 800 800 0.5
run             50000
PPPM initialization ...
  G vector (1/distance) = 0.27856857
  grid = 15 15 15
  stencil order = 5
  estimated absolute RMS force accuracy = 5.9523024e-05
  estimated relative force accuracy = 4.1336453e-06
  3d grid and FFT values/proc = 10648 3375
Step Temp E_pair E_mol TotEng Press Lx Ly Lz Fmax CPU CPULeft
50000    819.33202   -894.86542            0   -881.30933    7797.0885     13.45396    13.353653    13.253679    2.5013436            0            0
Averages over the last 26 of 51 rows, steps 75000 to 100000:
Temp E_pair E_mol TotEng Press Lx Ly Lz Fmax
779.96 -894.145 0 -881.241 6132.72 13.454 13.3537 13.2537 2.5152
Loop time of 92.0924 on 1 procs for 50000 steps with 129 atoms

# Stage 2: main_nvt_simulation
unfix int
dump     atom_info all custom 1000 main_nvt_simulation-trajectory.lammpstrj element x y z q id type vx vy vz
dump_modify     atom_info append yes
dump_modify     atom_info sort id
dump_modify     atom_info element Na Cl O
restart         0
fix             int all nvt temp 800 800 0.5
run             2000000
PPPM initialization ...
  G vector (1/distance) = 0.27856857
  grid = 15 15 15
  stencil order = 5
  estimated absolute RMS force accuracy = 5.9523024e-05
  estimated relative force accuracy = 4.1336453e-06
  3d grid and FFT values/proc = 10648 3375
Step Temp E_pair E_mol TotEng Press Lx Ly Lz Fmax CPU CPULeft
100000    849.29299   -894.24759            0   -880.19579    8136.0699     13.45396    13.353653    13.253679    2.4174998            0            0
Averages over the last 1001 of 2001 rows, steps 1100000 to 2100000:
Temp E_pair E_mol TotEng Press Lx Ly Lz Fmax
798.718 -894.094 0 -880.879 5690.13 13.454 13.3537 13.2537 2.40741
Loop time of 3716.67 on 1 procs for 2000000 steps with 129 atoms

# Final Commands
variable final_energy equal etotal
final_energy: -881.362791578049
print "END_OF_COMP"
END_OF_COMP
