LAMMPS (10 Feb 2021)
# Input written to comply with LAMMPS 2017-08-11 00:00:00

# Atomic Configuration
units           metal
boundary        p p p
box tilt large
atom_style      charge
read_data       na3ocl.lmp
Reading data file ...
  orthogonal box = (0.0000000 0.0000000 0.0000000) to (13.503000 13.503000 13.503000)
  reading atoms ...
  135 atoms

# Potential Setup
pair_style  buck/coul/long 12.0
pair_coeff * * 0.0 1.0 0.0
pair_coeff 1 1    1788.190000  0.159000   0.000000 # Na Na
pair_coeff 1 3    1170.410000  0.315000   0.000000 # Na Cl
pair_coeff 1 2     588.380000  0.338000   0.000000 # Na O
pair_coeff 3 3    1227.200000  0.321000  14.530000 # Cl Cl
pair_coeff 2 3    8286.910000  0.259000  62.200000 # Cl O
pair_coeff 2 2   22764.300000  0.149000  13.190000 # O  O
kspace_style pppm 1e-05

# General Setup
timestep        0.001

# Thermodynamic Information Output
thermo_style custom step temp epair emol etotal press lx ly lz fmax cpu cpuremain
thermo          1000

# Intial Atom Velocity
velocity all create 800 80800 dist gaussian rot yes

# Stage 0: npt_equilibriation
restart         0
fix             int all npt aniso 1.0 1.0 0.1 temp 800 800 0.5
run             50000
PPPM initialization ...
  G vector (1/distance) = 0.27806613
  grid = 15 15 15
  stencil order = 5
  estimated absolute RMS force accuracy = 6.1564455e-05
  estimated relative force accuracy = 4.2754148e-06
  3d grid and FFT values/proc = 10648 3375
  update every 1 steps, delay 10 steps, check yes
Step Temp E_pair E_mol TotEng Press Lx Ly Lz Fmax CPU CPULeft
0          800    -935.0408            0   -921.18412   -18577.158       13.503       13.503       13.503 2.2762301e-07            0            0
Averages over the last 26 of 51 rows, steps 25000 to 50000:
Temp E_pair E_mol TotEng Press Lx Ly Lz Fmax
806.734 -922.35 0 -908.377 1090.02 13.4538 13.4348 13.412 2.37928
Loop time of 131.074 on 1 procs for 50000 steps with 135 atoms

# Stage 1: nvt_equilibriation
unfix int
restart         0
fix             int all nvt temp 800 800 0.5
run             50000
PPPM initialization ...
  G vector (1/distance) = 0.27814865
  grid = 15 15 15
  stencil order = 5
  estimated absolute RMS force accuracy = 6.1304682e-05
  estimated relative force accuracy = 4.2573746e-06
  3d grid and FFT values/proc = 10648 3375
Step Temp E_pair E_mol TotEng Press Lx Ly Lz Fmax CPU CPULeft
50000    824.85544   -921.49593            0   -907.20873   -1321.2535    13.311588    13.588916    13.530396    2.3717231            0            0
Averages over the last 26 of 51 rows, steps 75000 to 100000:
Temp E_pair E_mol TotEng Press Lx Ly Lz Fmax
799.675 -921.592 0 -907.741 -1351.68 13.3116 13.5889 13.5304 2.36633
Loop time of 98.356 on 1 procs for 50000 steps with 135 atoms

# Stage 2: main_nvt_simulation
unfix int
dump     atom_info all custom 1 short.lammpstrj element x y z q id type vx vy vz
dump_modify     atom_info append yes
dump_modify     atom_info sort id
dump_modify     atom_info element Na O Cl
restart         0
fix             int all nvt temp 800 800 0.5
run             2000
PPPM initialization ...
  G vector (1/distance) = 0.27814865
  grid = 15 15 15
  stencil order = 5
  estimated absolute RMS force accuracy = 6.1304682e-05
  estimated relative force accuracy = 4.2573746e-06
  3d grid and FFT values/proc = 10648 3375
Step Temp E_pair E_mol TotEng Press Lx Ly Lz Fmax CPU CPULeft
100000    854.67321   -923.04947            0    -908.2458   -3184.6502    13.311588    13.588916    13.530396    1.9616938            0            0
Loop time of 4.40991 on 1 procs for 2000 steps with 135 atoms

# Final Commands
variable final_energy equal etotal
final_energy: -907.843059435386
print "END_OF_COMP"
END_OF_COMP
