LAMMPS (10 Feb 2021)
# Input written to comply with LAMMPS 2017-08-11 00:00:00

# Atomic Configuration
units           metal
boundary        p p p
box tilt large
atom_style      charge
read_data       na3ocl_3V.lmp
Reading data file ...
  orthogonal box = (0.0000000 0.0000000 0.0000000) to (13.503000 13.503000 13.503000)
  reading atoms ...
  129 atoms

# Potential Setup
pair_style  buck/coul/long 12.0
pair_coeff * * 0.0 1.0 0.0
pair_coeff 1 1    1788.190000  0.159000   0.000000 # Na Na
pair_coeff 1 3    1170.410000  0.315000   0.000000 # Na Cl
pair_coeff 1 2     588.380000  0.338000   0.000000 # Na O
pair_coeff 3 3    1227.200000  0.321000  14.530000 # Cl Cl
pair_coeff 2 3    8286.910000  0.259000  62.200000 # Cl O
pair_coeff 2 2   22764.300000  0.149000  13.190000 # O  O
kspace_style pppm 1e-05

# General Setup
timestep        0.001

# Thermodynamic Information Output
thermo_style custom step temp epair emol etotal press lx ly lz fmax cpu cpuremain
thermo          1000

# Intial Atom Velocity
velocity all create 300 80800 dist gaussian rot yes

# Stage 0: npt_equilibriation
restart         0
fix             int all npt aniso 1.0 1.0 0.1 temp 300 300 0.5
run             50000
PPPM initialization ...
  G vector (1/distance) = 0.27805162
  grid = 15 15 15
  stencil order = 5
  estimated absolute RMS force accuracy = 6.1260485e-05
  estimated relative force accuracy = 4.2543052e-06
  3d grid and FFT values/proc = 10648 3375
  update every 1 steps, delay 10 steps, check yes
Step Temp E_pair E_mol TotEng Press Lx Ly Lz Fmax CPU CPULeft
0          300   -890.25354            0   -885.28996   -22532.147       13.503       13.503       13.503    5.4570963            0            0
Averages over the last 26 of 51 rows, steps 25000 to 50000:
Temp E_pair E_mol TotEng Press Lx Ly Lz Fmax
309.66 -901.984 0 -896.86 -2122.56 13.3621 13.2721 13.31 1.38726
Loop time of 128.233 on 1 procs for 50000 steps with 129 atoms

# Stage 1: nvt_equilibriation
unfix int
restart         0
fix             int all nvt temp 300 300 0.5
run             50000
PPPM initialization ...
  G vector (1/distance) = 0.27900258
  grid = 15 15 15
  stencil order = 5
  estimated absolute RMS force accuracy = 5.8108708e-05
  estimated relative force accuracy = 4.0354264e-06
  3d grid and FFT values/proc = 10648 3375
Step Temp E_pair E_mol TotEng Press Lx Ly Lz Fmax CPU CPULeft
50000     293.5068   -901.65837            0   -896.80222    3890.1343    13.257281    13.378329    13.045799    1.4684598            0            0
Averages over the last 26 of 51 rows, steps 75000 to 100000:
Temp E_pair E_mol TotEng Press Lx Ly Lz Fmax
307.534 -902.374 0 -897.286 5404.2 13.2573 13.3783 13.0458 1.37862
Loop time of 96.1142 on 1 procs for 50000 steps with 129 atoms

# Stage 2: main_nvt_simulation
unfix int
dump     atom_info all custom 1 short.lammpstrj element x y z q id type vx vy vz
dump_modify     atom_info append yes
dump_modify     atom_info sort id
dump_modify     atom_info element Na O Cl
restart         0
fix             int all nvt temp 300 300 0.5
run             1000
PPPM initialization ...
  G vector (1/distance) = 0.27900258
  grid = 15 15 15
  stencil order = 5
  estimated absolute RMS force accuracy = 5.8108708e-05
  estimated relative force accuracy = 4.0354264e-06
  3d grid and FFT values/proc = 10648 3375
Step Temp E_pair E_mol TotEng Press Lx Ly Lz Fmax CPU CPULeft
100000    284.46333    -902.1653            0   -897.45877    3443.2706    13.257281    13.378329    13.045799    1.3697389            0            0
Loop time of 2.16543 on 1 procs for 1000 steps with 129 atoms

# Final Commands
variable final_energy equal etotal
final_energy: -897.375623248897
print "END_OF_COMP"
END_OF_COMP
