LAMMPS (10 Feb 2021)
# Input written to comply with LAMMPS 2017-08-11 00:00:00

# Atomic Configuration
units           metal
boundary        p p p
box tilt large
atom_style      charge
read_data       na3ocl.lmp
Reading data file ...
  orthogonal box = (0.0000000 0.0000000 0.0000000) to (13.503000 13.503000 13.503000)
  reading atoms ...
  135 atoms

# Potential Setup
pair_style  buck/coul/long 12.0
pair_coeff * * 0.0 1.0 0.0
pair_coeff 1 1    1788.190000  0.159000   0.000000 # Na Na
pair_coeff 1 3    1170.410000  0.315000   0.000000 # Na Cl
pair_coeff 1 2     588.380000  0.338000   0.000000 # Na O
pair_coeff 3 3    1227.200000  0.321000  14.530000 # Cl Cl
pair_coeff 2 3    8286.910000  0.259000  62.200000 # Cl O
pair_coeff 2 2   22764.300000  0.149000  13.190000 # O  O
kspace_style pppm 1e-05

# General Setup
timestep        0.001

# Thermodynamic Information Output
thermo_style custom step temp epair emol etotal press lx ly lz fmax cpu cpuremain
thermo          1000

# Intial Atom Velocity
velocity all create 300 80800 dist gaussian rot yes

# Stage 0: npt_equilibriation
restart         0
fix             int all npt aniso 1.0 1.0 0.1 temp 300 300 0.5
run             50000
PPPM initialization ...
  G vector (1/distance) = 0.27806613
  grid = 15 15 15
  stencil order = 5
  estimated absolute RMS force accuracy = 6.1564455e-05
  estimated relative force accuracy = 4.2754148e-06
  3d grid and FFT values/proc = 10648 3375
  update every 1 steps, delay 10 steps, check yes
Step Temp E_pair E_mol TotEng Press Lx Ly Lz Fmax CPU CPULeft
0          300    -935.0408            0   -929.84455   -22334.388       13.503       13.503       13.503 2.2762301e-07            0            0
Averages over the last 26 of 51 rows, steps 25000 to 50000:
Temp E_pair E_mol TotEng Press Lx Ly Lz Fmax
295.026 -931.243 0 -926.133 109.949 13.2979 13.3024 13.2924 1.38357
Loop time of 132.623 on 1 procs for 50000 steps with 135 atoms

# Stage 1: nvt_equilibriation
unfix int
restart         0
fix             int all nvt temp 300 300 0.5
run             50000
PPPM initialization ...
  G vector (1/distance) = 0.27872205
  grid = 15 15 15
  stencil order = 5
  estimated absolute RMS force accuracy = 5.9344823e-05
  estimated relative force accuracy = 4.1212699e-06
  3d grid and FFT values/proc = 10648 3375
Step Temp E_pair E_mol TotEng Press Lx Ly Lz Fmax CPU CPULeft
50000    300.60101   -931.08832            0   -925.88165   -1179.1333    13.273352    13.323447    13.348865    1.3607636            0            0
Averages over the last 26 of 51 rows, steps 75000 to 100000:
Temp E_pair E_mol TotEng Press Lx Ly Lz Fmax
301.768 -931.203 0 -925.976 -1226.88 13.2734 13.3234 13.3489 1.48225
Loop time of 99.1221 on 1 procs for 50000 steps with 135 atoms

# Stage 2: main_nvt_simulation
unfix int
dump     atom_info all custom 1000 main_nvt_simulation-trajectory.lammpstrj element x y z q id type vx vy vz
dump_modify     atom_info append yes
dump_modify     atom_info sort id
dump_modify     atom_info element Na O Cl
restart         0
fix             int all nvt temp 300 300 0.5
run             2000000
PPPM initialization ...
  G vector (1/distance) = 0.27872205
  grid = 15 15 15
  stencil order = 5
  estimated absolute RMS force accuracy = 5.9344823e-05
  estimated relative force accuracy = 4.1212699e-06
  3d grid and FFT values/proc = 10648 3375
Step Temp E_pair E_mol TotEng Press Lx Ly Lz Fmax CPU CPULeft
100000    278.19509   -931.12323            0   -926.30465   -2285.3982    13.273352    13.323447    13.348865    1.4003072            0            0
Averages over the last 1001 of 2001 rows, steps 1100000 to 2100000:
Temp E_pair E_mol TotEng Press Lx Ly Lz Fmax
300.229 -931.133 0 -925.933 -1378.19 13.2734 13.3234 13.3489 1.42872
Loop time of 3962.73 on 1 procs for 2000000 steps with 135 atoms

# Final Commands
variable final_energy equal etotal
final_energy: -925.096101843664
print "END_OF_COMP"
END_OF_COMP
